Circuit: * Z:\home\xiongyu\xiongyu\Power_Source\project\sim\Draft3.asc

WARNING: Less than two connections to node +5V.  This node is used by V3.
Instance "m:u3:4": Length shorter than recommended for a level 2 MOSFET.
Instance "m:u3:3": Length shorter than recommended for a level 2 MOSFET.
Instance "m:u3:2": Length shorter than recommended for a level 2 MOSFET.
Instance "m:u3:1": Length shorter than recommended for a level 2 MOSFET.
Instance "m:u1:4": Length shorter than recommended for a level 2 MOSFET.
Instance "m:u1:3": Length shorter than recommended for a level 2 MOSFET.
Instance "m:u1:2": Length shorter than recommended for a level 2 MOSFET.
Instance "m:u1:1": Length shorter than recommended for a level 2 MOSFET.
Instance "m:u2:4": Length shorter than recommended for a level 2 MOSFET.
Instance "m:u2:3": Length shorter than recommended for a level 2 MOSFET.
Instance "m:u2:2": Length shorter than recommended for a level 2 MOSFET.
Instance "m:u2:1": Length shorter than recommended for a level 2 MOSFET.
Instance "m:u4:4": Length shorter than recommended for a level 2 MOSFET.
Instance "m:u4:3": Length shorter than recommended for a level 2 MOSFET.
Instance "m:u4:2": Length shorter than recommended for a level 2 MOSFET.
Instance "m:u4:1": Length shorter than recommended for a level 2 MOSFET.
Direct Newton iteration failed to find .op point.  (Use ".option noopiter" to skip.)
Starting Gmin stepping
Gmin = 10
Gmin = 1.07374
Gmin = 0.115292
Gmin = 0.0123794
Gmin = 0.00132923
Gmin = 0.000142725
Gmin = 1.5325e-005
Gmin = 1.6455e-006
vernier = 0.5
vernier = 0.25
vernier = 0.125
vernier = 0.0625
vernier = 0.03125
vernier = 0.015625
vernier = 0.0078125
Gmin = 1.05312e-006
vernier = 0.00390625
vernier = 0.00520833
Gmin = 1.04256e-006
vernier = 0.00694444
vernier = 0.00925925
Gmin = 1.02433e-006
vernier = 0.0123457
Gmin = 9.96309e-007
vernier = 0.0164609
vernier = 0.0219478
Gmin = 9.51014e-007
vernier = 0.0292638
vernier = 0.0390184
Gmin = 8.83096e-007
vernier = 0.0520245
Gmin = 7.8609e-007
vernier = 0.0693659
vernier = 0.0924879
Gmin = 6.47086e-007
vernier = 0.123317
vernier = 0.164423
Gmin = 4.75332e-007
vernier = 0.21923
Gmin = 2.9375e-007
vernier = 0.292307
vernier = 0.389743
Gmin = 1.32641e-007
vernier = 0.519657
vernier = 0.692876
Gmin = 3.84493e-008
vernier = 0.923834
Gmin = 5.83326e-009
vernier = 1
Gmin = 6.26341e-010
vernier = 0.5
vernier = 0.25
vernier = 0.125
vernier = 0.0625
vernier = 0.03125
vernier = 0.015625
Gmin = 3.20687e-010
vernier = 0.0078125
vernier = 0.00390625
vernier = 0.00195313
vernier = 0.000976563
vernier = 0.000488281
Gmin = 0
Gmin stepping failed

Starting source stepping with srcstepmethod=0
Source Step = 3.0303%
vernier = 0.25
Source Step = 0.0828598%
Source Step = 0.201231%
Source Step = 0.319602%
Source Step = 0.437973%
Source Step = 0.556345%
vernier = 0.00585938
Source Step = 0.710227%
Source Step = 0.887784%
Source Step = 1.06534%
Source Step = 1.2429%
Source Step = 1.42045%
vernier = 0.00878906
Source Step = 1.6424%
Source Step = 1.90874%
Source Step = 2.17507%
Source Step = 2.44141%
Source Step = 2.70774%
vernier = 0.0131836
Source Step = 3.02734%
Source Step = 3.42685%
Source Step = 3.82635%
Source Step = 4.22585%
Source Step = 4.62536%
vernier = 0.0197754
Source Step = 5.08478%
Source Step = 5.68404%
Source Step = 6.28329%
Source Step = 6.88255%
Source Step = 7.4818%
vernier = 0.0296631
Source Step = 8.14098%
Source Step = 9.03986%
Source Step = 9.93874%
Source Step = 10.8376%
Source Step = 11.7365%
vernier = 0.0444946
Source Step = 12.6803%
Source Step = 14.0287%
Source Step = 15.377%
Source Step = 16.7253%
Source Step = 18.0736%
Source Step = 19.4219%
vernier = 0.0667419
Source Step = 21.4444%
Source Step = 23.4669%
Source Step = 25.4894%
Source Step = 27.5119%
Source Step = 29.5344%
vernier = 0.100113
Source Step = 32.467%
Source Step = 35.5007%
Source Step = 38.5344%
Source Step = 39.4635%
Source Step = 39.5109%
Source Step = 39.5583%
Source Step = 39.6057%
Source Step = 39.6531%
vernier = 0.0023464
Source Step = 39.7076%
Source Step = 39.7787%
Source Step = 39.8498%
Source Step = 39.9209%
Source Step = 39.992%
vernier = 0.00351959
Source Step = 40.0702%
Source Step = 40.1769%
Source Step = 40.2835%
Source Step = 40.3902%
Source Step = 40.4968%
vernier = 0.00527939
Source Step = 40.6088%
Source Step = 40.7688%
Source Step = 40.9288%
Source Step = 41.0888%
Source Step = 41.2488%
Source Step = 41.4087%
vernier = 0.00791909
Source Step = 41.6487%
Source Step = 41.8887%
Source Step = 42.1287%
Source Step = 42.3686%
Source Step = 42.6086%
vernier = 0.0118786
Source Step = 42.9566%
Source Step = 43.3165%
Source Step = 43.6765%
Source Step = 44.0364%
Source Step = 44.3964%
vernier = 0.0178179
Source Step = 44.9003%
Source Step = 45.4403%
Source Step = 45.9802%
Source Step = 46.5202%
Source Step = 47.0601%
vernier = 0.0267269
Source Step = 47.789%
Source Step = 48.5989%
Source Step = 49.4088%
Source Step = 50.2187%
Source Step = 51.0286%
vernier = 0.0400904
Source Step = 51.383%
Source Step = 51.4589%
Source Step = 51.5348%
Source Step = 51.6108%
Source Step = 51.6867%
vernier = 0.00375847
Source Step = 51.7664%
Source Step = 51.8803%
Source Step = 51.9942%
Source Step = 52.1081%
Source Step = 52.222%
Source Step = 52.3359%
vernier = 0.00563771
Source Step = 52.5067%
Source Step = 52.6776%
Source Step = 52.8484%
Source Step = 53.0192%
Source Step = 53.1901%
vernier = 0.00845657
Source Step = 53.4378%
Source Step = 53.6941%
Source Step = 53.9503%
Source Step = 54.2066%
Source Step = 54.4628%
vernier = 0.0126848
Source Step = 54.8216%
Source Step = 55.206%
Source Step = 55.5904%
Source Step = 55.9748%
Source Step = 56.3591%
vernier = 0.0190273
Source Step = 56.8781%
Source Step = 57.4547%
Source Step = 58.0312%
Source Step = 58.6078%
Source Step = 59.1844%
vernier = 0.0285409
Source Step = 59.934%
Source Step = 60.7988%
Source Step = 61.6637%
Source Step = 62.5286%
Source Step = 63.3935%
vernier = 0.0428114
Source Step = 64.4746%
Source Step = 65.7719%
Source Step = 67.0692%
Source Step = 68.3665%
Source Step = 69.6638%
vernier = 0.064217
Source Step = 71.2206%
Source Step = 73.1666%
Source Step = 75.1125%
Source Step = 77.0585%
Source Step = 79.0045%
vernier = 0.0963256
Source Step = 81.2424%
Source Step = 84.1613%
Source Step = 87.0803%
Source Step = 89.9992%
Source Step = 90.6058%
Source Step = 90.6514%
Source Step = 90.697%
Source Step = 90.7426%
Source Step = 90.7883%
Source Step = 90.8339%
Source Step = 90.8795%
Source Step = 90.9251%
Source Step = 90.9707%
Source Step = 91.0163%
Source Step = 91.0619%
Source Step = 91.1075%
Source Step = 91.1531%
Source Step = 91.1987%
Source Step = 91.2443%
Source Step = 91.2899%
Source Step = 91.3356%
Source Step = 91.3812%
Source Step = 91.4268%
Source Step = 91.4724%
Source Step = 91.518%
Source Step = 91.5636%
Source Step = 91.6092%
Source Step = 91.6548%
Source Step = 91.7004%
Source Step = 91.746%
Source Step = 91.7916%
Source Step = 91.8373%
Source Step = 91.8829%
Source Step = 91.9285%
Source Step = 91.9741%
Source Step = 92.0197%
Source Step = 92.0653%
Source Step = 92.1109%
Source Step = 92.1565%
Source Step = 92.2021%
Source Step = 92.2477%
Source Step = 92.2933%
Source Step = 92.3389%
Source Step = 92.3846%
Source Step = 92.4302%
Source Step = 92.4758%
Source Step = 92.5214%
Source Step = 92.567%
Source Step = 92.6126%
Source Step = 92.6582%
Source Step = 92.7038%
Source Step = 92.7494%
Source Step = 92.795%
Source Step = 92.8406%
Source Step = 92.8863%
Source Step = 92.9319%
Source Step = 92.9775%
Source Step = 93.0231%
Source Step = 93.0687%
Source Step = 93.1143%
Source Step = 93.1599%
Source Step = 93.2055%
Source Step = 93.2511%
Source Step = 93.2967%
Source Step = 93.3423%
Source Step = 93.3879%
Source Step = 93.4336%
Source Step = 93.4792%
Source Step = 93.5248%
Source Step = 93.5704%
Source Step = 93.616%
Source Step = 93.6616%
Source Step = 93.7072%
Source Step = 93.7528%
Source Step = 93.7984%
Source Step = 93.844%
Source Step = 93.8896%
Source Step = 93.9353%
Source Step = 93.9809%
Source Step = 94.0265%
Source Step = 94.0721%
Source Step = 94.1177%
Source Step = 94.1633%
Source Step = 94.2089%
Source Step = 94.2545%
Source Step = 94.3001%
vernier = 0.00225763
Source Step = 94.3549%
Source Step = 94.4233%
Source Step = 94.4917%
Source Step = 94.5601%
Source Step = 94.6285%
vernier = 0.00338645
Source Step = 94.7072%
Source Step = 94.8098%
Source Step = 94.9124%
Source Step = 95.015%
Source Step = 95.1177%
vernier = 0.00507967
Source Step = 95.2305%
Source Step = 95.3845%
Source Step = 95.5384%
Source Step = 95.6923%
Source Step = 95.8463%
vernier = 0.0076195
Source Step = 96.0079%
Source Step = 96.2388%
Source Step = 96.4697%
Source Step = 96.7006%
Source Step = 96.9315%
Source Step = 97.1624%
vernier = 0.0114293
Source Step = 97.5087%
Source Step = 97.855%
Source Step = 98.2014%
Source Step = 98.5477%
Source Step = 98.8941%
vernier = 0.0171439
Source Step = 99.3963%
Source Step = 99.9158%
Source stepping succeeded in finding the operating point.


Date: Tue Jul 16 17:15:43 2019
Total elapsed time: 7.626 seconds.

tnom = 27
temp = 27
method = trap
totiter = 63771
traniter = 0
tranpoints = 0
accept = 0
rejected = 0
matrix size = 195
fillins = 214
solver = Normal
Thread vector: 15.4/12.0[4] 0.0/0.0[0] 9.3/4.3[4] 1.1/1.7[1]  2592/500
Matrix Compiler1:    1162 opcodes  5.6/3.0/[1.1]
Matrix Compiler2: 21.31 KB object code size  5.1/3.4/[1.2]

